# generated using pymatgen
data_Pt
_symmetry_space_group_name_H-M   'P 1'
_cell_length_a   2.81877595
_cell_length_b   2.81877529
_cell_length_c   2.81877586
_cell_angle_alpha   59.99987196
_cell_angle_beta   59.99987744
_cell_angle_gamma   59.99987505
_symmetry_Int_Tables_number   1
_chemical_formula_structural   Pt
_chemical_formula_sum   Pt1
_cell_volume   15.83672319
_cell_formula_units_Z   1
loop_
 _symmetry_equiv_pos_site_id
 _symmetry_equiv_pos_as_xyz
  1  'x, y, z'
loop_
 _atom_site_type_symbol
 _atom_site_label
 _atom_site_symmetry_multiplicity
 _atom_site_fract_x
 _atom_site_fract_y
 _atom_site_fract_z
 _atom_site_occupancy
  Pt  Pt0  1  0.00000001  -0.00000002  -0.00000001  1
